Circuit: * Z:\media\gallop\Data\_third_year\ece331\labs\lab5\LTSpice_Lab5\Class-B PA.asc

Direct Newton iteration for .op point succeeded.

Date: Wed Nov 23 16:26:41 2016
Total elapsed time: 0.281 seconds.

tnom = 27
temp = 27
method = modified trap
totiter = 23270
traniter = 23235
tranpoints = 10831
accept = 10534
rejected = 297
matrix size = 36
fillins = 23
solver = Normal
Matrix Compiler1: 2.97 KB object code size  1.4/0.6/[0.4]
Matrix Compiler2: off  [0.5]/0.7/1.0


