Circuit: * Z:\media\gallop\Data\_third_year\ece331\labs\lab5\LTSpice_Lab5\Draft2.asc

