Circuit: * Z:\media\gallop\Data\_third_year\ece331\labs\lab5\LTSpice_Lab5\Draft1.asc

Direct Newton iteration for .op point succeeded.

Date: Mon Nov 21 23:29:45 2016
Total elapsed time: 14.563 seconds.

tnom = 27
temp = 27
method = modified trap
totiter = 1031531
traniter = 1031494
tranpoints = 505381
accept = 503791
rejected = 1590
matrix size = 33
fillins = 10
solver = Normal
Matrix Compiler1: 2.11 KB object code size  1.3/0.7/[0.5]
Matrix Compiler2: off  [0.6]/0.8/0.9


