Circuit: * Z:\media\gallop\Data\_third_year\ece331\labs\lab5\LTSpice_Lab5\Lab5.asc

Model "ald1101": Oxide thickness thinner than recommended for a level 2 MOSFET.
Instance "m:x1:6": Length shorter than recommended for a level 2 MOSFET.
Instance "m:x1:2": Length shorter than recommended for a level 2 MOSFET.
Instance "m:x1:5": Length shorter than recommended for a level 2 MOSFET.
Instance "m:x1:3": Length shorter than recommended for a level 2 MOSFET.
Model "ald1102": Oxide thickness thinner than recommended for a level 2 MOSFET.
Instance "m:x1:4": Length shorter than recommended for a level 2 MOSFET.
Instance "m:x1:1": Length shorter than recommended for a level 2 MOSFET.
Direct Newton iteration for .op point succeeded.

Date: Tue Nov 22 11:54:09 2016
Total elapsed time: 0.458 seconds.

tnom = 27
temp = 27
method = modified trap
totiter = 18875
traniter = 18853
tranpoints = 6045
accept = 4306
rejected = 1739
matrix size = 54
fillins = 24
solver = Normal
Matrix Compiler1: 4.47 KB object code size  2.4/1.0/[0.7]
Matrix Compiler2: 5.25 KB object code size  0.9/1.0/[0.9]


