Circuit: * Z:\media\gallop\Data\_third_year\ece331\labs\lab5\LTSpice_Lab5\PA_Class_A.asc

Direct Newton iteration for .op point succeeded.

Date: Wed Nov 23 16:25:04 2016
Total elapsed time: 12.471 seconds.

tnom = 27
temp = 27
method = modified trap
totiter = 1000051
traniter = 1000036
tranpoints = 500018
accept = 500018
rejected = 0
matrix size = 33
fillins = 10
solver = Normal
Matrix Compiler1: 2.06 KB object code size  1.5/0.7/[0.5]
Matrix Compiler2: off  [0.6]/0.7/0.9


